   Input file: ./varying_pressure.pqi
  Output file: ./varying_pressure.pqo
Database file: /usr/local/share/doc/phreeqc/database/pitzer.dat

------------------
Reading data base.
------------------

	SOLUTION_MASTER_SPECIES
	SOLUTION_SPECIES
	PHASES
	PITZER
	EXCHANGE_MASTER_SPECIES
	EXCHANGE_SPECIES
	SURFACE_MASTER_SPECIES
	SURFACE_SPECIES
	END
------------------------------------
Reading input data for simulation 1.
------------------------------------

	DATABASE /usr/local/share/doc/phreeqc/database/pitzer.dat
	SOLUTION 1
		temperature	25.0
		units	mol/kgw
		Na	0
		Cl	0
		Ca	0
		Mg	0
		K	0
		S(6)	0
	GAS_PHASE 1
		fixed_volume
		CO2(g)	0
		H2O(g)	0
	REACTION 1
		CO2 1
		  0 100*0.5
	INCREMENTAL_REACTIONS true
	SELECTED_OUTPUT
		file ./varying_pressure.tsv
		totals	C(4)
		solution True
		gases	CO2(g)
		saturation_indices CO2(g)
	END
-------------------------------------------
Beginning of initial solution calculations.
-------------------------------------------

Initial solution 1.	

-----------------------------Solution composition------------------------------

	Elements           Molality       Moles

	Pure water     

----------------------------Description of solution----------------------------

                                       pH  =   7.000    
                                       pe  =   4.000    
      Specific Conductance (µS/cm,  25°C)  = 0
                          Density (g/cm³)  =   0.99704
                               Volume (L)  =   1.00297
                        Activity of water  =   1.000
                 Ionic strength (mol/kgw)  =   1.006e-07
                       Mass of water (kg)  =   1.000e+00
                 Total alkalinity (eq/kg)  =   1.216e-09
                         Temperature (°C)  =  25.00
                  Electrical balance (eq)  =  -1.216e-09
 Percent error, 100*(Cat-|An|)/(Cat+|An|)  =  -0.60
                               Iterations  =   3
                         Gamma iterations  =   2
                      Osmotic coefficient  =   0.99988
                         Density of water  =   0.99704
                                  Total H  = 1.110124e+02
                                  Total O  = 5.550622e+01

----------------------------Distribution of species----------------------------

                                                    MacInnes  MacInnes
                                MacInnes       Log       Log       Log    mole V
   Species          Molality    Activity  Molality  Activity     Gamma    cm³/mol

   OH-             1.013e-07   1.012e-07    -6.995    -6.995    -0.000     -4.14
   H+              1.000e-07   1.000e-07    -7.000    -7.000    -0.000      0.00
   H2O             5.551e+01   1.000e+00     1.744    -0.000     0.000     18.07

------------------------------Saturation indices-------------------------------

  Phase               SI** log IAP   log K(298 K,   1 atm)

  H2O(g)           -1.50     -0.00    1.50  H2O

**For a gas, SI = log10(fugacity). Fugacity = pressure * phi / 1 atm.
  For ideal gases, phi = 1.

-----------------------------------------
Beginning of batch-reaction calculations.
-----------------------------------------

Reaction step 1.

WARNING: Element C is contained in gas CO2(g) (which has 0.0 mass),
but is not in solution or other phases.
Using solution 1.	
Using gas phase 1.	
Using reaction 1.	

Reaction 1.	

	  0.000e+00 moles of the following reaction have been added:

	                 Relative
	Reactant            moles

	CO2                  1.00000

	                 Relative
	Element             moles
	C                    1.00000
	O                    2.00000

-----------------------------------Gas phase-----------------------------------

Total pressure:  0.03      atmospheres          (Peng-Robinson calculation)
    Gas volume:   1.00e+00 liters
  Molar volume:   7.78e+02 liters/mole
   P * Vm / RT:  0.99951  (Compressibility Factor Z) 

                                                        Moles in gas
                                            ----------------------------------
Component         log P           P    phi     Initial       Final       Delta

CO2(g)           -99.99   0.000e+00  1.000   0.000e+00   0.000e+00   0.000e+00
H2O(g)            -1.50   3.143e-02  1.000   0.000e+00   1.285e-03   1.285e-03

-----------------------------Solution composition------------------------------

	Elements           Molality       Moles

	Pure water     

----------------------------Description of solution----------------------------

                                       pH  =   7.000      Charge balance
                                       pe  =   4.000      Adjusted to redox equilibrium
      Specific Conductance (µS/cm,  25°C)  = 0
                          Density (g/cm³)  =   0.99700
                               Volume (L)  =   1.00299
                        Activity of water  =   1.000
                 Ionic strength (mol/kgw)  =   1.006e-07
                       Mass of water (kg)  =   1.000e+00
                 Total alkalinity (eq/kg)  =   1.216e-09
                         Temperature (°C)  =  25.00
                           Pressure (atm)  =  0.03
                  Electrical balance (eq)  =  -1.216e-09
 Percent error, 100*(Cat-|An|)/(Cat+|An|)  =  -0.60
                               Iterations  =  10
                         Gamma iterations  =   1
                      Osmotic coefficient  =   0.99988
                         Density of water  =   0.99700
                                  Total H  = 1.110099e+02
                                  Total O  = 5.550493e+01

----------------------------Distribution of species----------------------------

                                                    MacInnes  MacInnes
                                MacInnes       Log       Log       Log    mole V
   Species          Molality    Activity  Molality  Activity     Gamma    cm³/mol

   OH-             1.013e-07   1.012e-07    -6.995    -6.995    -0.000     -4.14
   H+              1.000e-07   1.000e-07    -7.000    -7.000    -0.000      0.00
   H2O             5.551e+01   1.000e+00     1.744    -0.000     0.000     18.07

------------------------------Saturation indices-------------------------------

  Phase               SI** log IAP   log K(298 K,   0 atm)

  H2O(g)           -1.50     -0.00    1.50  H2O	 Pressure   0.0 atm, phi 1.000

**For a gas, SI = log10(fugacity). Fugacity = pressure * phi / 1 atm.
  For ideal gases, phi = 1.

Reaction step 2.

Using solution 1.	
Using gas phase 1.	
Using reaction 1.	

Reaction 1.	

	  5.000e-01 moles of the following reaction have been added:

	                 Relative
	Reactant            moles

	CO2                  1.00000

	                 Relative
	Element             moles
	C                    1.00000
	O                    2.00000

-----------------------------------Gas phase-----------------------------------

Total pressure:  6.68      atmospheres          (Peng-Robinson calculation)
    Gas volume:   1.00e+00 liters
  Molar volume:   3.52e+00 liters/mole
   P * Vm / RT:  0.96214  (Compressibility Factor Z) 

                                                        Moles in gas
                                            ----------------------------------
Component         log P           P    phi     Initial       Final       Delta

CO2(g)             0.82   6.646e+00  0.963   0.000e+00   2.823e-01   2.823e-01
H2O(g)            -1.47   3.352e-02  0.938   1.285e-03   1.424e-03   1.386e-04

-----------------------------Solution composition------------------------------

	Elements           Molality       Moles

	C                 2.177e-01   2.177e-01

----------------------------Description of solution----------------------------

                                       pH  =   3.504      Charge balance
                                       pe  =   4.000      Adjusted to redox equilibrium
      Specific Conductance (µS/cm,  25°C)  = 125
                          Density (g/cm³)  =   0.99939
                               Volume (L)  =   1.01017
                        Activity of water  =   0.996
                 Ionic strength (mol/kgw)  =   3.207e-04
                       Mass of water (kg)  =   1.000e+00
                 Total alkalinity (eq/kg)  =   1.216e-09
                       Total CO2 (mol/kg)  =   2.177e-01
                         Temperature (°C)  =  25.00
                           Pressure (atm)  =  6.68
                  Electrical balance (eq)  =  -1.216e-09
 Percent error, 100*(Cat-|An|)/(Cat+|An|)  =  -0.00
                               Iterations  =  27
                         Gamma iterations  =   3
                      Osmotic coefficient  =   0.99708
                         Density of water  =   0.99730
                                  Total H  = 1.110096e+02
                                  Total O  = 5.594017e+01

----------------------------Distribution of species----------------------------

                                                    MacInnes  MacInnes
                                MacInnes       Log       Log       Log    mole V
   Species          Molality    Activity  Molality  Activity     Gamma    cm³/mol

   H+              3.207e-04   3.135e-04    -3.494    -3.504    -0.010      0.00
   OH-             3.293e-11   3.232e-11   -10.482   -10.490    -0.008     -4.10
   H2O             5.551e+01   9.961e-01     1.744    -0.002     0.000     18.06
C(4)          2.177e-01
   CO2             2.174e-01   2.161e-01    -0.663    -0.665    -0.003     34.43
   HCO3-           3.207e-04   3.148e-04    -3.494    -3.502    -0.008     24.74
   CO3-2           5.017e-11   4.628e-11   -10.300   -10.335    -0.035     -3.76

------------------------------Saturation indices-------------------------------

  Phase               SI** log IAP   log K(298 K,   7 atm)

  CO2(g)            0.81     -0.67   -1.47  CO2	 Pressure   6.6 atm, phi 0.963
  H2O(g)           -1.50     -0.00    1.50  H2O	 Pressure   0.0 atm, phi 0.938

**For a gas, SI = log10(fugacity). Fugacity = pressure * phi / 1 atm.
  For ideal gases, phi = 1.

Reaction step 3.

Using solution 1.	
Using gas phase 1.	
Using reaction 1.	

Reaction 1.	

	  5.000e-01 moles of the following reaction have been added:

	                 Relative
	Reactant            moles

	CO2                  1.00000

	                 Relative
	Element             moles
	C                    1.00000
	O                    2.00000

-----------------------------------Gas phase-----------------------------------

Total pressure: 13.25      atmospheres          (Peng-Robinson calculation)
    Gas volume:   1.00e+00 liters
  Molar volume:   1.71e+00 liters/mole
   P * Vm / RT:  0.92346  (Compressibility Factor Z) 

                                                        Moles in gas
                                            ----------------------------------
Component         log P           P    phi     Initial       Final       Delta

CO2(g)             1.12   1.321e+01  0.928   2.823e-01   5.849e-01   3.026e-01
H2O(g)            -1.45   3.585e-02  0.878   1.424e-03   1.587e-03   1.628e-04

-----------------------------Solution composition------------------------------

	Elements           Molality       Moles

	C                 4.151e-01   4.151e-01

----------------------------Description of solution----------------------------

                                       pH  =   3.365      Charge balance
                                       pe  =   4.000      Adjusted to redox equilibrium
      Specific Conductance (µS/cm,  25°C)  = 174
                          Density (g/cm³)  =   1.00155
                               Volume (L)  =   1.01666
                        Activity of water  =   0.993
                 Ionic strength (mol/kgw)  =   4.443e-04
                       Mass of water (kg)  =   1.000e+00
                 Total alkalinity (eq/kg)  =   1.217e-09
                       Total CO2 (mol/kg)  =   4.151e-01
                         Temperature (°C)  =  25.00
                           Pressure (atm)  = 13.25
                  Electrical balance (eq)  =  -1.217e-09
 Percent error, 100*(Cat-|An|)/(Cat+|An|)  =  -0.00
                               Iterations  =  17
                         Gamma iterations  =   3
                      Osmotic coefficient  =   0.99444
                         Density of water  =   0.99760
                                  Total H  = 1.110093e+02
                                  Total O  = 5.633487e+01

----------------------------Distribution of species----------------------------

                                                    MacInnes  MacInnes
                                MacInnes       Log       Log       Log    mole V
   Species          Molality    Activity  Molality  Activity     Gamma    cm³/mol

   H+              4.443e-04   4.319e-04    -3.352    -3.365    -0.012      0.00
   OH-             2.400e-11   2.352e-11   -10.620   -10.629    -0.009     -4.07
   H2O             5.551e+01   9.926e-01     1.744    -0.003     0.000     18.06
C(4)          4.151e-01
   CO2             4.147e-01   4.101e-01    -0.382    -0.387    -0.005     34.43
   HCO3-           4.443e-04   4.353e-04    -3.352    -3.361    -0.009     24.75
   CO3-2           5.132e-11   4.681e-11   -10.290   -10.330    -0.040     -3.70

------------------------------Saturation indices-------------------------------

  Phase               SI** log IAP   log K(298 K,  13 atm)

  CO2(g)            1.09     -0.39   -1.48  CO2	 Pressure  13.2 atm, phi 0.928
  H2O(g)           -1.50     -0.00    1.50  H2O	 Pressure   0.0 atm, phi 0.878

**For a gas, SI = log10(fugacity). Fugacity = pressure * phi / 1 atm.
  For ideal gases, phi = 1.

Reaction step 4.

Using solution 1.	
Using gas phase 1.	
Using reaction 1.	

Reaction 1.	

	  5.000e-01 moles of the following reaction have been added:

	                 Relative
	Reactant            moles

	CO2                  1.00000

	                 Relative
	Element             moles
	C                    1.00000
	O                    2.00000

-----------------------------------Gas phase-----------------------------------

Total pressure: 19.68      atmospheres          (Peng-Robinson calculation)
    Gas volume:   1.00e+00 liters
  Molar volume:   1.10e+00 liters/mole
   P * Vm / RT:  0.88382  (Compressibility Factor Z) 

                                                        Moles in gas
                                            ----------------------------------
Component         log P           P    phi     Initial       Final       Delta

CO2(g)             1.29   1.964e+01  0.894   5.849e-01   9.083e-01   3.235e-01
H2O(g)            -1.42   3.843e-02  0.820   1.587e-03   1.777e-03   1.902e-04

-----------------------------Solution composition------------------------------

	Elements           Molality       Moles

	C                 5.917e-01   5.917e-01

----------------------------Description of solution----------------------------

                                       pH  =   3.288      Charge balance
                                       pe  =   4.000      Adjusted to redox equilibrium
      Specific Conductance (µS/cm,  25°C)  = 208
                          Density (g/cm³)  =   1.00349
                               Volume (L)  =   1.02244
                        Activity of water  =   0.989
                 Ionic strength (mol/kgw)  =   5.315e-04
                       Mass of water (kg)  =   1.000e+00
                 Total alkalinity (eq/kg)  =   1.217e-09
                       Total CO2 (mol/kg)  =   5.917e-01
                         Temperature (°C)  =  25.00
                           Pressure (atm)  = 19.68
                  Electrical balance (eq)  =  -1.217e-09
 Percent error, 100*(Cat-|An|)/(Cat+|An|)  =  -0.00
                               Iterations  =  19
                         Gamma iterations  =   3
                      Osmotic coefficient  =   0.99208
                         Density of water  =   0.99789
                                  Total H  = 1.110089e+02
                                  Total O  = 5.668776e+01

----------------------------Distribution of species----------------------------

                                                    MacInnes  MacInnes
                                MacInnes       Log       Log       Log    mole V
   Species          Molality    Activity  Molality  Activity     Gamma    cm³/mol

   H+              5.315e-04   5.147e-04    -3.274    -3.288    -0.014      0.00
   OH-             2.021e-11   1.979e-11   -10.694   -10.704    -0.009     -4.05
   H2O             5.551e+01   9.895e-01     1.744    -0.005     0.000     18.05
C(4)          5.917e-01
   CO2             5.912e-01   5.819e-01    -0.228    -0.235    -0.007     34.42
   HCO3-           5.315e-04   5.205e-04    -3.274    -3.284    -0.009     24.76
   CO3-2           5.218e-11   4.732e-11   -10.282   -10.325    -0.042     -3.64

------------------------------Saturation indices-------------------------------

  Phase               SI** log IAP   log K(298 K,  20 atm)

  CO2(g)            1.24     -0.24   -1.48  CO2	 Pressure  19.6 atm, phi 0.894
  H2O(g)           -1.50     -0.00    1.50  H2O	 Pressure   0.0 atm, phi 0.820

**For a gas, SI = log10(fugacity). Fugacity = pressure * phi / 1 atm.
  For ideal gases, phi = 1.

Reaction step 5.

Using solution 1.	
Using gas phase 1.	
Using reaction 1.	

Reaction 1.	

	  5.000e-01 moles of the following reaction have been added:

	                 Relative
	Reactant            moles

	CO2                  1.00000

	                 Relative
	Element             moles
	C                    1.00000
	O                    2.00000

-----------------------------------Gas phase-----------------------------------

Total pressure: 25.90      atmospheres          (Peng-Robinson calculation)
    Gas volume:   1.00e+00 liters
  Molar volume:   7.97e-01 liters/mole
   P * Vm / RT:  0.84342  (Compressibility Factor Z) 

                                                        Moles in gas
                                            ----------------------------------
Component         log P           P    phi     Initial       Final       Delta

CO2(g)             1.41   2.586e+01  0.861   9.083e-01   1.253e+00   3.447e-01
H2O(g)            -1.38   4.125e-02  0.765   1.777e-03   1.999e-03   2.220e-04

-----------------------------Solution composition------------------------------

	Elements           Molality       Moles

	C                 7.470e-01   7.470e-01

----------------------------Description of solution----------------------------

                                       pH  =   3.238      Charge balance
                                       pe  =   4.000      Adjusted to redox equilibrium
      Specific Conductance (µS/cm,  25°C)  = 234
                          Density (g/cm³)  =   1.00520
                               Volume (L)  =   1.02750
                        Activity of water  =   0.987
                 Ionic strength (mol/kgw)  =   5.982e-04
                       Mass of water (kg)  =   1.000e+00
                 Total alkalinity (eq/kg)  =   1.217e-09
                       Total CO2 (mol/kg)  =   7.470e-01
                         Temperature (°C)  =  25.00
                           Pressure (atm)  = 25.90
                  Electrical balance (eq)  =  -1.217e-09
 Percent error, 100*(Cat-|An|)/(Cat+|An|)  =  -0.00
                               Iterations  =  19
                         Gamma iterations  =   3
                      Osmotic coefficient  =   0.99000
                         Density of water  =   0.99816
                                  Total H  = 1.110084e+02
                                  Total O  = 5.699822e+01

----------------------------Distribution of species----------------------------

                                                    MacInnes  MacInnes
                                MacInnes       Log       Log       Log    mole V
   Species          Molality    Activity  Molality  Activity     Gamma    cm³/mol

   H+              5.982e-04   5.775e-04    -3.223    -3.238    -0.015      0.00
   OH-             1.806e-11   1.769e-11   -10.743   -10.752    -0.009     -4.02
   H2O             5.551e+01   9.868e-01     1.744    -0.006     0.000     18.05
C(4)          7.470e-01
   CO2             7.464e-01   7.317e-01    -0.127    -0.136    -0.009     34.42
   HCO3-           5.982e-04   5.858e-04    -3.223    -3.232    -0.009     24.76
   CO3-2           5.290e-11   4.781e-11   -10.277   -10.320    -0.044     -3.59

------------------------------Saturation indices-------------------------------

  Phase               SI** log IAP   log K(298 K,  26 atm)

  CO2(g)            1.35     -0.14   -1.48  CO2	 Pressure  25.9 atm, phi 0.861
  H2O(g)           -1.50     -0.01    1.49  H2O	 Pressure   0.0 atm, phi 0.765

**For a gas, SI = log10(fugacity). Fugacity = pressure * phi / 1 atm.
  For ideal gases, phi = 1.

Reaction step 6.

Using solution 1.	
Using gas phase 1.	
Using reaction 1.	

Reaction 1.	

	  5.000e-01 moles of the following reaction have been added:

	                 Relative
	Reactant            moles

	CO2                  1.00000

	                 Relative
	Element             moles
	C                    1.00000
	O                    2.00000

-----------------------------------Gas phase-----------------------------------

Total pressure: 31.83      atmospheres          (Peng-Robinson calculation)
    Gas volume:   1.00e+00 liters
  Molar volume:   6.17e-01 liters/mole
   P * Vm / RT:  0.80252  (Compressibility Factor Z) 

                                                        Moles in gas
                                            ----------------------------------
Component         log P           P    phi     Initial       Final       Delta

CO2(g)             1.50   3.178e+01  0.831   1.253e+00   1.619e+00   3.657e-01
H2O(g)            -1.35   4.433e-02  0.714   1.999e-03   2.258e-03   2.588e-04

-----------------------------Solution composition------------------------------

	Elements           Molality       Moles

	C                 8.813e-01   8.813e-01

----------------------------Description of solution----------------------------

                                       pH  =   3.203      Charge balance
                                       pe  =   4.000      Adjusted to redox equilibrium
      Specific Conductance (µS/cm,  25°C)  = 254
                          Density (g/cm³)  =   1.00669
                               Volume (L)  =   1.03185
                        Activity of water  =   0.984
                 Ionic strength (mol/kgw)  =   6.508e-04
                       Mass of water (kg)  =   9.999e-01
                 Total alkalinity (eq/kg)  =   1.217e-09
                       Total CO2 (mol/kg)  =   8.813e-01
                         Temperature (°C)  =  25.00
                           Pressure (atm)  = 31.83
                  Electrical balance (eq)  =  -1.217e-09
 Percent error, 100*(Cat-|An|)/(Cat+|An|)  =  -0.00
                               Iterations  =  19
                         Gamma iterations  =   3
                      Osmotic coefficient  =   0.98820
                         Density of water  =   0.99843
                                  Total H  = 1.110079e+02
                                  Total O  = 5.726653e+01

----------------------------Distribution of species----------------------------

                                                    MacInnes  MacInnes
                                MacInnes       Log       Log       Log    mole V
   Species          Molality    Activity  Molality  Activity     Gamma    cm³/mol

   H+              6.508e-04   6.267e-04    -3.187    -3.203    -0.016      0.00
   OH-             1.669e-11   1.635e-11   -10.777   -10.787    -0.009     -4.00
   H2O             5.551e+01   9.844e-01     1.744    -0.007     0.000     18.04
C(4)          8.813e-01
   CO2             8.807e-01   8.601e-01    -0.055    -0.065    -0.010     34.42
   HCO3-           6.508e-04   6.374e-04    -3.187    -3.196    -0.009     24.77
   CO3-2           5.353e-11   4.826e-11   -10.271   -10.316    -0.045     -3.54

------------------------------Saturation indices-------------------------------

  Phase               SI** log IAP   log K(298 K,  32 atm)

  CO2(g)            1.42     -0.07   -1.49  CO2	 Pressure  31.8 atm, phi 0.831
  H2O(g)           -1.50     -0.01    1.49  H2O	 Pressure   0.0 atm, phi 0.714

**For a gas, SI = log10(fugacity). Fugacity = pressure * phi / 1 atm.
  For ideal gases, phi = 1.

Reaction step 7.

Using solution 1.	
Using gas phase 1.	
Using reaction 1.	

Reaction 1.	

	  5.000e-01 moles of the following reaction have been added:

	                 Relative
	Reactant            moles

	CO2                  1.00000

	                 Relative
	Element             moles
	C                    1.00000
	O                    2.00000

-----------------------------------Gas phase-----------------------------------

Total pressure: 37.40      atmospheres          (Peng-Robinson calculation)
    Gas volume:   1.00e+00 liters
  Molar volume:   4.98e-01 liters/mole
   P * Vm / RT:  0.76142  (Compressibility Factor Z) 

                                                        Moles in gas
                                            ----------------------------------
Component         log P           P    phi     Initial       Final       Delta

CO2(g)             1.57   3.735e+01  0.802   1.619e+00   2.005e+00   3.861e-01
H2O(g)            -1.32   4.766e-02  0.665   2.258e-03   2.559e-03   3.008e-04

-----------------------------Solution composition------------------------------

	Elements           Molality       Moles

	C                 9.952e-01   9.952e-01

----------------------------Description of solution----------------------------

                                       pH  =   3.177      Charge balance
                                       pe  =   4.000      Adjusted to redox equilibrium
      Specific Conductance (µS/cm,  25°C)  = 270
                          Density (g/cm³)  =   1.00796
                               Volume (L)  =   1.03551
                        Activity of water  =   0.982
                 Ionic strength (mol/kgw)  =   6.926e-04
                       Mass of water (kg)  =   9.999e-01
                 Total alkalinity (eq/kg)  =   1.218e-09
                       Total CO2 (mol/kg)  =   9.952e-01
                         Temperature (°C)  =  25.00
                           Pressure (atm)  = 37.40
                  Electrical balance (eq)  =  -1.217e-09
 Percent error, 100*(Cat-|An|)/(Cat+|An|)  =  -0.00
                               Iterations  =  19
                         Gamma iterations  =   3
                      Osmotic coefficient  =   0.98668
                         Density of water  =   0.99868
                                  Total H  = 1.110073e+02
                                  Total O  = 5.749401e+01

----------------------------Distribution of species----------------------------

                                                    MacInnes  MacInnes
                                MacInnes       Log       Log       Log    mole V
   Species          Molality    Activity  Molality  Activity     Gamma    cm³/mol

   H+              6.926e-04   6.656e-04    -3.159    -3.177    -0.017      0.00
   OH-             1.576e-11   1.544e-11   -10.802   -10.811    -0.009     -3.98
   H2O             5.551e+01   9.825e-01     1.744    -0.008     0.000     18.04
C(4)          9.952e-01
   CO2             9.945e-01   9.684e-01    -0.002    -0.014    -0.012     34.42
   HCO3-           6.926e-04   6.785e-04    -3.159    -3.168    -0.009     24.78
   CO3-2           5.407e-11   4.868e-11   -10.267   -10.313    -0.046     -3.49

------------------------------Saturation indices-------------------------------

  Phase               SI** log IAP   log K(298 K,  37 atm)

  CO2(g)            1.48     -0.01   -1.49  CO2	 Pressure  37.3 atm, phi 0.802
  H2O(g)           -1.50     -0.01    1.49  H2O	 Pressure   0.0 atm, phi 0.665

**For a gas, SI = log10(fugacity). Fugacity = pressure * phi / 1 atm.
  For ideal gases, phi = 1.

Reaction step 8.

Using solution 1.	
Using gas phase 1.	
Using reaction 1.	

Reaction 1.	

	  5.000e-01 moles of the following reaction have been added:

	                 Relative
	Reactant            moles

	CO2                  1.00000

	                 Relative
	Element             moles
	C                    1.00000
	O                    2.00000

-----------------------------------Gas phase-----------------------------------

Total pressure: 42.53      atmospheres          (Peng-Robinson calculation)
    Gas volume:   1.00e+00 liters
  Molar volume:   4.14e-01 liters/mole
   P * Vm / RT:  0.72042  (Compressibility Factor Z) 

                                                        Moles in gas
                                            ----------------------------------
Component         log P           P    phi     Initial       Final       Delta

CO2(g)             1.63   4.248e+01  0.776   2.005e+00   2.410e+00   4.053e-01
H2O(g)            -1.29   5.124e-02  0.620   2.559e-03   2.907e-03   3.482e-04

-----------------------------Solution composition------------------------------

	Elements           Molality       Moles

	C                 1.090e+00   1.090e+00

----------------------------Description of solution----------------------------

                                       pH  =   3.157      Charge balance
                                       pe  =   4.000      Adjusted to redox equilibrium
      Specific Conductance (µS/cm,  25°C)  = 283
                          Density (g/cm³)  =   1.00904
                               Volume (L)  =   1.03852
                        Activity of water  =   0.981
                 Ionic strength (mol/kgw)  =   7.259e-04
                       Mass of water (kg)  =   9.999e-01
                 Total alkalinity (eq/kg)  =   1.218e-09
                       Total CO2 (mol/kg)  =   1.090e+00
                         Temperature (°C)  =  25.00
                           Pressure (atm)  = 42.53
                  Electrical balance (eq)  =  -1.218e-09
 Percent error, 100*(Cat-|An|)/(Cat+|An|)  =  -0.00
                               Iterations  =  19
                         Gamma iterations  =   3
                      Osmotic coefficient  =   0.98541
                         Density of water  =   0.99891
                                  Total H  = 1.110066e+02
                                  Total O  = 5.768298e+01

----------------------------Distribution of species----------------------------

                                                    MacInnes  MacInnes
                                MacInnes       Log       Log       Log    mole V
   Species          Molality    Activity  Molality  Activity     Gamma    cm³/mol

   H+              7.259e-04   6.965e-04    -3.139    -3.157    -0.018      0.00
   OH-             1.510e-11   1.480e-11   -10.821   -10.830    -0.009     -3.96
   H2O             5.551e+01   9.808e-01     1.744    -0.008     0.000     18.04
C(4)          1.090e+00
   CO2             1.089e+00   1.058e+00     0.037     0.024    -0.013     34.41
   HCO3-           7.259e-04   7.113e-04    -3.139    -3.148    -0.009     24.78
   CO3-2           5.455e-11   4.906e-11   -10.263   -10.309    -0.046     -3.45

------------------------------Saturation indices-------------------------------

  Phase               SI** log IAP   log K(298 K,  43 atm)

  CO2(g)            1.52      0.02   -1.49  CO2	 Pressure  42.5 atm, phi 0.776
  H2O(g)           -1.50     -0.01    1.49  H2O	 Pressure   0.1 atm, phi 0.620

**For a gas, SI = log10(fugacity). Fugacity = pressure * phi / 1 atm.
  For ideal gases, phi = 1.

Reaction step 9.

Using solution 1.	
Using gas phase 1.	
Using reaction 1.	

Reaction 1.	

	  5.000e-01 moles of the following reaction have been added:

	                 Relative
	Reactant            moles

	CO2                  1.00000

	                 Relative
	Element             moles
	C                    1.00000
	O                    2.00000

-----------------------------------Gas phase-----------------------------------

Total pressure: 47.18      atmospheres          (Peng-Robinson calculation)
    Gas volume:   1.00e+00 liters
  Molar volume:   3.53e-01 liters/mole
   P * Vm / RT:  0.67987  (Compressibility Factor Z) 

                                                        Moles in gas
                                            ----------------------------------
Component         log P           P    phi     Initial       Final       Delta

CO2(g)             1.67   4.713e+01  0.752   2.410e+00   2.833e+00   4.230e-01
H2O(g)            -1.26   5.502e-02  0.579   2.907e-03   3.308e-03   4.011e-04

-----------------------------Solution composition------------------------------

	Elements           Molality       Moles

	C                 1.167e+00   1.167e+00

----------------------------Description of solution----------------------------

                                       pH  =   3.142      Charge balance
                                       pe  =   4.000      Adjusted to redox equilibrium
      Specific Conductance (µS/cm,  25°C)  = 294
                          Density (g/cm³)  =   1.00993
                               Volume (L)  =   1.04095
                        Activity of water  =   0.980
                 Ionic strength (mol/kgw)  =   7.522e-04
                       Mass of water (kg)  =   9.999e-01
                 Total alkalinity (eq/kg)  =   1.218e-09
                       Total CO2 (mol/kg)  =   1.167e+00
                         Temperature (°C)  =  25.00
                           Pressure (atm)  = 47.18
                  Electrical balance (eq)  =  -1.218e-09
 Percent error, 100*(Cat-|An|)/(Cat+|An|)  =  -0.00
                               Iterations  =  19
                         Gamma iterations  =   3
                      Osmotic coefficient  =   0.98438
                         Density of water  =   0.99912
                                  Total H  = 1.110058e+02
                                  Total O  = 5.783660e+01

----------------------------Distribution of species----------------------------

                                                    MacInnes  MacInnes
                                MacInnes       Log       Log       Log    mole V
   Species          Molality    Activity  Molality  Activity     Gamma    cm³/mol

   H+              7.522e-04   7.208e-04    -3.124    -3.142    -0.019      0.00
   OH-             1.463e-11   1.434e-11   -10.835   -10.844    -0.009     -3.94
   H2O             5.551e+01   9.795e-01     1.744    -0.009     0.000     18.03
C(4)          1.167e+00
   CO2             1.166e+00   1.130e+00     0.067     0.053    -0.014     34.41
   HCO3-           7.523e-04   7.372e-04    -3.124    -3.132    -0.009     24.79
   CO3-2           5.496e-11   4.940e-11   -10.260   -10.306    -0.046     -3.42

------------------------------Saturation indices-------------------------------

  Phase               SI** log IAP   log K(298 K,  47 atm)

  CO2(g)            1.55      0.05   -1.50  CO2	 Pressure  47.1 atm, phi 0.752
  H2O(g)           -1.50     -0.01    1.49  H2O	 Pressure   0.1 atm, phi 0.579

**For a gas, SI = log10(fugacity). Fugacity = pressure * phi / 1 atm.
  For ideal gases, phi = 1.

Reaction step 10.

Using solution 1.	
Using gas phase 1.	
Using reaction 1.	

Reaction 1.	

	  5.000e-01 moles of the following reaction have been added:

	                 Relative
	Reactant            moles

	CO2                  1.00000

	                 Relative
	Element             moles
	C                    1.00000
	O                    2.00000

-----------------------------------Gas phase-----------------------------------

Total pressure: 51.30      atmospheres          (Peng-Robinson calculation)
    Gas volume:   1.00e+00 liters
  Molar volume:   3.05e-01 liters/mole
   P * Vm / RT:  0.64008  (Compressibility Factor Z) 

                                                        Moles in gas
                                            ----------------------------------
Component         log P           P    phi     Initial       Final       Delta

CO2(g)             1.71   5.124e+01  0.731   2.833e+00   3.272e+00   4.388e-01
H2O(g)            -1.23   5.900e-02  0.541   3.308e-03   3.767e-03   4.594e-04

-----------------------------Solution composition------------------------------

	Elements           Molality       Moles

	C                 1.228e+00   1.228e+00

----------------------------Description of solution----------------------------

                                       pH  =   3.131      Charge balance
                                       pe  =   4.000      Adjusted to redox equilibrium
      Specific Conductance (µS/cm,  25°C)  = 302
                          Density (g/cm³)  =   1.01066
                               Volume (L)  =   1.04286
                        Activity of water  =   0.978
                 Ionic strength (mol/kgw)  =   7.728e-04
                       Mass of water (kg)  =   9.999e-01
                 Total alkalinity (eq/kg)  =   1.218e-09
                       Total CO2 (mol/kg)  =   1.228e+00
                         Temperature (°C)  =  25.00
                           Pressure (atm)  = 51.30
                  Electrical balance (eq)  =  -1.218e-09
 Percent error, 100*(Cat-|An|)/(Cat+|An|)  =  -0.00
                               Iterations  =  19
                         Gamma iterations  =   3
                      Osmotic coefficient  =   0.98356
                         Density of water  =   0.99930
                                  Total H  = 1.110049e+02
                                  Total O  = 5.795862e+01

----------------------------Distribution of species----------------------------

                                                    MacInnes  MacInnes
                                MacInnes       Log       Log       Log    mole V
   Species          Molality    Activity  Molality  Activity     Gamma    cm³/mol

   H+              7.728e-04   7.397e-04    -3.112    -3.131    -0.019      0.00
   OH-             1.429e-11   1.401e-11   -10.845   -10.854    -0.009     -3.93
   H2O             5.551e+01   9.785e-01     1.744    -0.009     0.000     18.03
C(4)          1.228e+00
   CO2             1.227e+00   1.188e+00     0.089     0.075    -0.014     34.41
   HCO3-           7.728e-04   7.575e-04    -3.112    -3.121    -0.009     24.79
   CO3-2           5.531e-11   4.969e-11   -10.257   -10.304    -0.047     -3.38

------------------------------Saturation indices-------------------------------

  Phase               SI** log IAP   log K(298 K,  51 atm)

  CO2(g)            1.57      0.07   -1.50  CO2	 Pressure  51.2 atm, phi 0.731
  H2O(g)           -1.50     -0.01    1.49  H2O	 Pressure   0.1 atm, phi 0.541

**For a gas, SI = log10(fugacity). Fugacity = pressure * phi / 1 atm.
  For ideal gases, phi = 1.

Reaction step 11.

Using solution 1.	
Using gas phase 1.	
Using reaction 1.	

Reaction 1.	

	  5.000e-01 moles of the following reaction have been added:

	                 Relative
	Reactant            moles

	CO2                  1.00000

	                 Relative
	Element             moles
	C                    1.00000
	O                    2.00000

-----------------------------------Gas phase-----------------------------------

Total pressure: 54.86      atmospheres          (Peng-Robinson calculation)
    Gas volume:   1.00e+00 liters
  Molar volume:   2.68e-01 liters/mole
   P * Vm / RT:  0.60132  (Compressibility Factor Z) 

                                                        Moles in gas
                                            ----------------------------------
Component         log P           P    phi     Initial       Final       Delta

CO2(g)             1.74   5.479e+01  0.713   3.272e+00   3.724e+00   4.525e-01
H2O(g)            -1.20   6.312e-02  0.506   3.767e-03   4.290e-03   5.228e-04

-----------------------------Solution composition------------------------------

	Elements           Molality       Moles

	C                 1.276e+00   1.276e+00

----------------------------Description of solution----------------------------

                                       pH  =   3.122      Charge balance
                                       pe  =   4.000      Adjusted to redox equilibrium
      Specific Conductance (µS/cm,  25°C)  = 308
                          Density (g/cm³)  =   1.01124
                               Volume (L)  =   1.04433
                        Activity of water  =   0.978
                 Ionic strength (mol/kgw)  =   7.886e-04
                       Mass of water (kg)  =   9.999e-01
                 Total alkalinity (eq/kg)  =   1.218e-09
                       Total CO2 (mol/kg)  =   1.276e+00
                         Temperature (°C)  =  25.00
                           Pressure (atm)  = 54.86
                  Electrical balance (eq)  =  -1.218e-09
 Percent error, 100*(Cat-|An|)/(Cat+|An|)  =  -0.00
                               Iterations  =  19
                         Gamma iterations  =   3
                      Osmotic coefficient  =   0.98292
                         Density of water  =   0.99946
                                  Total H  = 1.110039e+02
                                  Total O  = 5.805315e+01

----------------------------Distribution of species----------------------------

                                                    MacInnes  MacInnes
                                MacInnes       Log       Log       Log    mole V
   Species          Molality    Activity  Molality  Activity     Gamma    cm³/mol

   H+              7.886e-04   7.543e-04    -3.103    -3.122    -0.019      0.00
   OH-             1.404e-11   1.377e-11   -10.853   -10.861    -0.009     -3.91
   H2O             5.551e+01   9.776e-01     1.744    -0.010     0.000     18.03
C(4)          1.276e+00
   CO2             1.275e+00   1.232e+00     0.105     0.091    -0.015     34.41
   HCO3-           7.886e-04   7.732e-04    -3.103    -3.112    -0.009     24.80
   CO3-2           5.561e-11   4.994e-11   -10.255   -10.302    -0.047     -3.36

------------------------------Saturation indices-------------------------------

  Phase               SI** log IAP   log K(298 K,  55 atm)

  CO2(g)            1.59      0.09   -1.50  CO2	 Pressure  54.8 atm, phi 0.713
  H2O(g)           -1.50     -0.01    1.49  H2O	 Pressure   0.1 atm, phi 0.506

**For a gas, SI = log10(fugacity). Fugacity = pressure * phi / 1 atm.
  For ideal gases, phi = 1.

Reaction step 12.

Using solution 1.	
Using gas phase 1.	
Using reaction 1.	

Reaction 1.	

	  5.000e-01 moles of the following reaction have been added:

	                 Relative
	Reactant            moles

	CO2                  1.00000

	                 Relative
	Element             moles
	C                    1.00000
	O                    2.00000

-----------------------------------Gas phase-----------------------------------

Total pressure: 57.85      atmospheres          (Peng-Robinson calculation)
    Gas volume:   1.00e+00 liters
  Molar volume:   2.38e-01 liters/mole
   P * Vm / RT:  0.56384  (Compressibility Factor Z) 

                                                        Moles in gas
                                            ----------------------------------
Component         log P           P    phi     Initial       Final       Delta

CO2(g)             1.76   5.778e+01  0.697   3.724e+00   4.189e+00   4.641e-01
H2O(g)            -1.17   6.734e-02  0.475   4.290e-03   4.881e-03   5.913e-04

-----------------------------Solution composition------------------------------

	Elements           Molality       Moles

	C                 1.312e+00   1.311e+00

----------------------------Description of solution----------------------------

                                       pH  =   3.116      Charge balance
                                       pe  =   4.000      Adjusted to redox equilibrium
      Specific Conductance (µS/cm,  25°C)  = 313
                          Density (g/cm³)  =   1.01169
                               Volume (L)  =   1.04542
                        Activity of water  =   0.977
                 Ionic strength (mol/kgw)  =   8.005e-04
                       Mass of water (kg)  =   9.999e-01
                 Total alkalinity (eq/kg)  =   1.218e-09
                       Total CO2 (mol/kg)  =   1.312e+00
                         Temperature (°C)  =  25.00
                           Pressure (atm)  = 57.85
                  Electrical balance (eq)  =  -1.218e-09
 Percent error, 100*(Cat-|An|)/(Cat+|An|)  =  -0.00
                               Iterations  =  17
                         Gamma iterations  =   3
                      Osmotic coefficient  =   0.98244
                         Density of water  =   0.99960
                                  Total H  = 1.110027e+02
                                  Total O  = 5.812432e+01

----------------------------Distribution of species----------------------------

                                                    MacInnes  MacInnes
                                MacInnes       Log       Log       Log    mole V
   Species          Molality    Activity  Molality  Activity     Gamma    cm³/mol

   H+              8.005e-04   7.652e-04    -3.097    -3.116    -0.020      0.00
   OH-             1.387e-11   1.360e-11   -10.858   -10.866    -0.009     -3.90
   H2O             5.551e+01   9.770e-01     1.744    -0.010     0.000     18.02
C(4)          1.312e+00
   CO2             1.311e+00   1.266e+00     0.118     0.102    -0.015     34.41
   HCO3-           8.005e-04   7.849e-04    -3.097    -3.105    -0.009     24.80
   CO3-2           5.585e-11   5.014e-11   -10.253   -10.300    -0.047     -3.33

------------------------------Saturation indices-------------------------------

  Phase               SI** log IAP   log K(298 K,  58 atm)

  CO2(g)            1.61      0.10   -1.50  CO2	 Pressure  57.8 atm, phi 0.697
  H2O(g)           -1.49     -0.01    1.48  H2O	 Pressure   0.1 atm, phi 0.475

**For a gas, SI = log10(fugacity). Fugacity = pressure * phi / 1 atm.
  For ideal gases, phi = 1.

Reaction step 13.

Using solution 1.	
Using gas phase 1.	
Using reaction 1.	

Reaction 1.	

	  5.000e-01 moles of the following reaction have been added:

	                 Relative
	Reactant            moles

	CO2                  1.00000

	                 Relative
	Element             moles
	C                    1.00000
	O                    2.00000

-----------------------------------Gas phase-----------------------------------

Total pressure: 60.28      atmospheres          (Peng-Robinson calculation)
    Gas volume:   1.00e+00 liters
  Molar volume:   2.14e-01 liters/mole
   P * Vm / RT:  0.52782  (Compressibility Factor Z) 

                                                        Moles in gas
                                            ----------------------------------
Component         log P           P    phi     Initial       Final       Delta

CO2(g)             1.78   6.021e+01  0.684   4.189e+00   4.662e+00   4.738e-01
H2O(g)            -1.14   7.162e-02  0.448   4.881e-03   5.546e-03   6.645e-04

-----------------------------Solution composition------------------------------

	Elements           Molality       Moles

	C                 1.338e+00   1.338e+00

----------------------------Description of solution----------------------------

                                       pH  =   3.112      Charge balance
                                       pe  =   4.000      Adjusted to redox equilibrium
      Specific Conductance (µS/cm,  25°C)  = 316
                          Density (g/cm³)  =   1.01202
                               Volume (L)  =   1.04620
                        Activity of water  =   0.977
                 Ionic strength (mol/kgw)  =   8.093e-04
                       Mass of water (kg)  =   9.999e-01
                 Total alkalinity (eq/kg)  =   1.218e-09
                       Total CO2 (mol/kg)  =   1.338e+00
                         Temperature (°C)  =  25.00
                           Pressure (atm)  = 60.28
                  Electrical balance (eq)  =  -1.218e-09
 Percent error, 100*(Cat-|An|)/(Cat+|An|)  =  -0.00
                               Iterations  =  17
                         Gamma iterations  =   3
                      Osmotic coefficient  =   0.98209
                         Density of water  =   0.99971
                                  Total H  = 1.110013e+02
                                  Total O  = 5.817610e+01

----------------------------Distribution of species----------------------------

                                                    MacInnes  MacInnes
                                MacInnes       Log       Log       Log    mole V
   Species          Molality    Activity  Molality  Activity     Gamma    cm³/mol

   H+              8.093e-04   7.732e-04    -3.092    -3.112    -0.020      0.00
   OH-             1.375e-11   1.348e-11   -10.862   -10.870    -0.009     -3.89
   H2O             5.551e+01   9.766e-01     1.744    -0.010     0.000     18.02
C(4)          1.338e+00
   CO2             1.337e+00   1.290e+00     0.126     0.111    -0.016     34.40
   HCO3-           8.093e-04   7.936e-04    -3.092    -3.100    -0.009     24.80
   CO3-2           5.605e-11   5.031e-11   -10.251   -10.298    -0.047     -3.31

------------------------------Saturation indices-------------------------------

  Phase               SI** log IAP   log K(298 K,  60 atm)

  CO2(g)            1.61      0.11   -1.50  CO2	 Pressure  60.2 atm, phi 0.684
  H2O(g)           -1.49     -0.01    1.48  H2O	 Pressure   0.1 atm, phi 0.448

**For a gas, SI = log10(fugacity). Fugacity = pressure * phi / 1 atm.
  For ideal gases, phi = 1.

Reaction step 14.

Using solution 1.	
Using gas phase 1.	
Using reaction 1.	

Reaction 1.	

	  5.000e-01 moles of the following reaction have been added:

	                 Relative
	Reactant            moles

	CO2                  1.00000

	                 Relative
	Element             moles
	C                    1.00000
	O                    2.00000

-----------------------------------Gas phase-----------------------------------

Total pressure: 62.17      atmospheres          (Peng-Robinson calculation)
    Gas volume:   1.00e+00 liters
  Molar volume:   1.94e-01 liters/mole
   P * Vm / RT:  0.49342  (Compressibility Factor Z) 

                                                        Moles in gas
                                            ----------------------------------
Component         log P           P    phi     Initial       Final       Delta

CO2(g)             1.79   6.210e+01  0.674   4.662e+00   5.144e+00   4.816e-01
H2O(g)            -1.12   7.591e-02  0.423   5.546e-03   6.288e-03   7.422e-04

-----------------------------Solution composition------------------------------

	Elements           Molality       Moles

	C                 1.356e+00   1.356e+00

----------------------------Description of solution----------------------------

                                       pH  =   3.109      Charge balance
                                       pe  =   4.000      Adjusted to redox equilibrium
      Specific Conductance (µS/cm,  25°C)  = 318
                          Density (g/cm³)  =   1.01227
                               Volume (L)  =   1.04673
                        Activity of water  =   0.976
                 Ionic strength (mol/kgw)  =   8.155e-04
                       Mass of water (kg)  =   9.999e-01
                 Total alkalinity (eq/kg)  =   1.219e-09
                       Total CO2 (mol/kg)  =   1.356e+00
                         Temperature (°C)  =  25.00
                           Pressure (atm)  = 62.17
                  Electrical balance (eq)  =  -1.219e-09
 Percent error, 100*(Cat-|An|)/(Cat+|An|)  =  -0.00
                               Iterations  =  15
                         Gamma iterations  =   3
                      Osmotic coefficient  =   0.98185
                         Density of water  =   0.99979
                                  Total H  = 1.109999e+02
                                  Total O  = 5.821215e+01

----------------------------Distribution of species----------------------------

                                                    MacInnes  MacInnes
                                MacInnes       Log       Log       Log    mole V
   Species          Molality    Activity  Molality  Activity     Gamma    cm³/mol

   H+              8.155e-04   7.789e-04    -3.089    -3.109    -0.020      0.00
   OH-             1.366e-11   1.340e-11   -10.864   -10.873    -0.008     -3.88
   H2O             5.551e+01   9.763e-01     1.744    -0.010     0.000     18.02
C(4)          1.356e+00
   CO2             1.355e+00   1.307e+00     0.132     0.116    -0.016     34.40
   HCO3-           8.155e-04   7.997e-04    -3.089    -3.097    -0.008     24.80
   CO3-2           5.619e-11   5.043e-11   -10.250   -10.297    -0.047     -3.30

------------------------------Saturation indices-------------------------------

  Phase               SI** log IAP   log K(298 K,  62 atm)

  CO2(g)            1.62      0.12   -1.51  CO2	 Pressure  62.1 atm, phi 0.674
  H2O(g)           -1.49     -0.01    1.48  H2O	 Pressure   0.1 atm, phi 0.423

**For a gas, SI = log10(fugacity). Fugacity = pressure * phi / 1 atm.
  For ideal gases, phi = 1.

Reaction step 15.

Using solution 1.	
Using gas phase 1.	
Using reaction 1.	

Reaction 1.	

	  5.000e-01 moles of the following reaction have been added:

	                 Relative
	Reactant            moles

	CO2                  1.00000

	                 Relative
	Element             moles
	C                    1.00000
	O                    2.00000

-----------------------------------Gas phase-----------------------------------

Total pressure: 63.56      atmospheres          (Peng-Robinson calculation)
    Gas volume:   1.00e+00 liters
  Molar volume:   1.77e-01 liters/mole
   P * Vm / RT:  0.46074  (Compressibility Factor Z) 

                                                        Moles in gas
                                            ----------------------------------
Component         log P           P    phi     Initial       Final       Delta

CO2(g)             1.80   6.348e+01  0.666   5.144e+00   5.632e+00   4.878e-01
H2O(g)            -1.10   8.017e-02  0.401   6.288e-03   7.112e-03   8.242e-04

-----------------------------Solution composition------------------------------

	Elements           Molality       Moles

	C                 1.368e+00   1.368e+00

----------------------------Description of solution----------------------------

                                       pH  =   3.106      Charge balance
                                       pe  =   4.000      Adjusted to redox equilibrium
      Specific Conductance (µS/cm,  25°C)  = 320
                          Density (g/cm³)  =   1.01244
                               Volume (L)  =   1.04707
                        Activity of water  =   0.976
                 Ionic strength (mol/kgw)  =   8.196e-04
                       Mass of water (kg)  =   9.999e-01
                 Total alkalinity (eq/kg)  =   1.219e-09
                       Total CO2 (mol/kg)  =   1.368e+00
                         Temperature (°C)  =  25.00
                           Pressure (atm)  = 63.56
                  Electrical balance (eq)  =  -1.219e-09
 Percent error, 100*(Cat-|An|)/(Cat+|An|)  =  -0.00
                               Iterations  =  13
                         Gamma iterations  =   2
                      Osmotic coefficient  =   0.98168
                         Density of water  =   0.99985
                                  Total H  = 1.109982e+02
                                  Total O  = 5.823566e+01

----------------------------Distribution of species----------------------------

                                                    MacInnes  MacInnes
                                MacInnes       Log       Log       Log    mole V
   Species          Molality    Activity  Molality  Activity     Gamma    cm³/mol

   H+              8.196e-04   7.827e-04    -3.086    -3.106    -0.020      0.00
   OH-             1.361e-11   1.335e-11   -10.866   -10.875    -0.008     -3.88
   H2O             5.551e+01   9.761e-01     1.744    -0.011     0.000     18.02
C(4)          1.368e+00
   CO2             1.368e+00   1.318e+00     0.136     0.120    -0.016     34.40
   HCO3-           8.196e-04   8.038e-04    -3.086    -3.095    -0.008     24.80
   CO3-2           5.630e-11   5.052e-11   -10.249   -10.297    -0.047     -3.29

------------------------------Saturation indices-------------------------------

  Phase               SI** log IAP   log K(298 K,  64 atm)

  CO2(g)            1.63      0.12   -1.51  CO2	 Pressure  63.5 atm, phi 0.666
  H2O(g)           -1.49     -0.01    1.48  H2O	 Pressure   0.1 atm, phi 0.401

**For a gas, SI = log10(fugacity). Fugacity = pressure * phi / 1 atm.
  For ideal gases, phi = 1.

Reaction step 16.

Using solution 1.	
Using gas phase 1.	
Using reaction 1.	

Reaction 1.	

	  5.000e-01 moles of the following reaction have been added:

	                 Relative
	Reactant            moles

	CO2                  1.00000

	                 Relative
	Element             moles
	C                    1.00000
	O                    2.00000

-----------------------------------Gas phase-----------------------------------

Total pressure: 64.49      atmospheres          (Peng-Robinson calculation)
    Gas volume:   1.00e+00 liters
  Molar volume:   1.63e-01 liters/mole
   P * Vm / RT:  0.42983  (Compressibility Factor Z) 

                                                        Moles in gas
                                            ----------------------------------
Component         log P           P    phi     Initial       Final       Delta

CO2(g)             1.81   6.441e+01  0.661   5.632e+00   6.124e+00   4.927e-01
H2O(g)            -1.07   8.437e-02  0.381   7.112e-03   8.023e-03   9.103e-04

-----------------------------Solution composition------------------------------

	Elements           Molality       Moles

	C                 1.376e+00   1.376e+00

----------------------------Description of solution----------------------------

                                       pH  =   3.105      Charge balance
                                       pe  =   4.000      Adjusted to redox equilibrium
      Specific Conductance (µS/cm,  25°C)  = 321
                          Density (g/cm³)  =   1.01254
                               Volume (L)  =   1.04726
                        Activity of water  =   0.976
                 Ionic strength (mol/kgw)  =   8.221e-04
                       Mass of water (kg)  =   9.998e-01
                 Total alkalinity (eq/kg)  =   1.220e-09
                       Total CO2 (mol/kg)  =   1.376e+00
                         Temperature (°C)  =  25.00
                           Pressure (atm)  = 64.49
                  Electrical balance (eq)  =  -1.219e-09
 Percent error, 100*(Cat-|An|)/(Cat+|An|)  =  -0.00
                               Iterations  =  12
                         Gamma iterations  =   2
                      Osmotic coefficient  =   0.98158
                         Density of water  =   0.99989
                                  Total H  = 1.109964e+02
                                  Total O  = 5.824943e+01

----------------------------Distribution of species----------------------------

                                                    MacInnes  MacInnes
                                MacInnes       Log       Log       Log    mole V
   Species          Molality    Activity  Molality  Activity     Gamma    cm³/mol

   H+              8.221e-04   7.850e-04    -3.085    -3.105    -0.020      0.00
   OH-             1.358e-11   1.332e-11   -10.867   -10.876    -0.008     -3.88
   H2O             5.551e+01   9.759e-01     1.744    -0.011     0.000     18.02
C(4)          1.376e+00
   CO2             1.375e+00   1.325e+00     0.138     0.122    -0.016     34.40
   HCO3-           8.221e-04   8.063e-04    -3.085    -3.094    -0.008     24.81
   CO3-2           5.637e-11   5.058e-11   -10.249   -10.296    -0.047     -3.28

------------------------------Saturation indices-------------------------------

  Phase               SI** log IAP   log K(298 K,  64 atm)

  CO2(g)            1.63      0.12   -1.51  CO2	 Pressure  64.4 atm, phi 0.661
  H2O(g)           -1.49     -0.01    1.48  H2O	 Pressure   0.1 atm, phi 0.381

**For a gas, SI = log10(fugacity). Fugacity = pressure * phi / 1 atm.
  For ideal gases, phi = 1.

Reaction step 17.

Using solution 1.	
Using gas phase 1.	
Using reaction 1.	

Reaction 1.	

	  5.000e-01 moles of the following reaction have been added:

	                 Relative
	Reactant            moles

	CO2                  1.00000

	                 Relative
	Element             moles
	C                    1.00000
	O                    2.00000

-----------------------------------Gas phase-----------------------------------

Total pressure: 65.00      atmospheres          (Peng-Robinson calculation)
    Gas volume:   1.00e+00 liters
  Molar volume:   1.51e-01 liters/mole
   P * Vm / RT:  0.40075  (Compressibility Factor Z) 

                                                        Moles in gas
                                            ----------------------------------
Component         log P           P    phi     Initial       Final       Delta

CO2(g)             1.81   6.491e+01  0.658   6.124e+00   6.621e+00   4.963e-01
H2O(g)            -1.05   8.847e-02  0.363   8.023e-03   9.023e-03   1.000e-03

-----------------------------Solution composition------------------------------

	Elements           Molality       Moles

	C                 1.380e+00   1.379e+00

----------------------------Description of solution----------------------------

                                       pH  =   3.104      Charge balance
                                       pe  =   4.000      Adjusted to redox equilibrium
      Specific Conductance (µS/cm,  25°C)  = 322
                          Density (g/cm³)  =   1.01260
                               Volume (L)  =   1.04735
                        Activity of water  =   0.976
                 Ionic strength (mol/kgw)  =   8.234e-04
                       Mass of water (kg)  =   9.998e-01
                 Total alkalinity (eq/kg)  =   1.220e-09
                       Total CO2 (mol/kg)  =   1.380e+00
                         Temperature (°C)  =  25.00
                           Pressure (atm)  = 65.00
                  Electrical balance (eq)  =  -1.219e-09
 Percent error, 100*(Cat-|An|)/(Cat+|An|)  =  -0.00
                               Iterations  =  11
                         Gamma iterations  =   2
                      Osmotic coefficient  =   0.98153
                         Density of water  =   0.99992
                                  Total H  = 1.109944e+02
                                  Total O  = 5.825576e+01

----------------------------Distribution of species----------------------------

                                                    MacInnes  MacInnes
                                MacInnes       Log       Log       Log    mole V
   Species          Molality    Activity  Molality  Activity     Gamma    cm³/mol

   H+              8.234e-04   7.862e-04    -3.084    -3.104    -0.020      0.00
   OH-             1.356e-11   1.330e-11   -10.868   -10.876    -0.008     -3.87
   H2O             5.551e+01   9.759e-01     1.744    -0.011     0.000     18.02
C(4)          1.380e+00
   CO2             1.379e+00   1.329e+00     0.139     0.123    -0.016     34.40
   HCO3-           8.234e-04   8.076e-04    -3.084    -3.093    -0.008     24.81
   CO3-2           5.641e-11   5.062e-11   -10.249   -10.296    -0.047     -3.28

------------------------------Saturation indices-------------------------------

  Phase               SI** log IAP   log K(298 K,  65 atm)

  CO2(g)            1.63      0.12   -1.51  CO2	 Pressure  64.9 atm, phi 0.658
  H2O(g)           -1.49     -0.01    1.48  H2O	 Pressure   0.1 atm, phi 0.363

**For a gas, SI = log10(fugacity). Fugacity = pressure * phi / 1 atm.
  For ideal gases, phi = 1.

Reaction step 18.

Using solution 1.	
Using gas phase 1.	
Using reaction 1.	

Reaction 1.	

	  5.000e-01 moles of the following reaction have been added:

	                 Relative
	Reactant            moles

	CO2                  1.00000

	                 Relative
	Element             moles
	C                    1.00000
	O                    2.00000

-----------------------------------Gas phase-----------------------------------

Total pressure: 65.15      atmospheres          (Peng-Robinson calculation)
    Gas volume:   1.00e+00 liters
  Molar volume:   1.40e-01 liters/mole
   P * Vm / RT:  0.37349  (Compressibility Factor Z) 

                                                        Moles in gas
                                            ----------------------------------
Component         log P           P    phi     Initial       Final       Delta

CO2(g)             1.81   6.506e+01  0.657   6.621e+00   7.120e+00   4.990e-01
H2O(g)            -1.03   9.244e-02  0.348   9.023e-03   1.012e-02   1.094e-03

-----------------------------Solution composition------------------------------

	Elements           Molality       Moles

	C                 1.381e+00   1.380e+00

----------------------------Description of solution----------------------------

                                       pH  =   3.104      Charge balance
                                       pe  =   4.000      Adjusted to redox equilibrium
      Specific Conductance (µS/cm,  25°C)  = 322
                          Density (g/cm³)  =   1.01261
                               Volume (L)  =   1.04735
                        Activity of water  =   0.976
                 Ionic strength (mol/kgw)  =   8.238e-04
                       Mass of water (kg)  =   9.998e-01
                 Total alkalinity (eq/kg)  =   1.220e-09
                       Total CO2 (mol/kg)  =   1.381e+00
                         Temperature (°C)  =  25.00
                           Pressure (atm)  = 65.15
                  Electrical balance (eq)  =  -1.219e-09
 Percent error, 100*(Cat-|An|)/(Cat+|An|)  =  -0.00
                               Iterations  =  10
                         Gamma iterations  =   2
                      Osmotic coefficient  =   0.98152
                         Density of water  =   0.99992
                                  Total H  = 1.109922e+02
                                  Total O  = 5.825660e+01

----------------------------Distribution of species----------------------------

                                                    MacInnes  MacInnes
                                MacInnes       Log       Log       Log    mole V
   Species          Molality    Activity  Molality  Activity     Gamma    cm³/mol

   H+              8.238e-04   7.865e-04    -3.084    -3.104    -0.020      0.00
   OH-             1.356e-11   1.330e-11   -10.868   -10.876    -0.008     -3.87
   H2O             5.551e+01   9.759e-01     1.744    -0.011     0.000     18.02
C(4)          1.381e+00
   CO2             1.380e+00   1.330e+00     0.140     0.124    -0.016     34.40
   HCO3-           8.238e-04   8.079e-04    -3.084    -3.093    -0.008     24.81
   CO3-2           5.642e-11   5.063e-11   -10.249   -10.296    -0.047     -3.28

------------------------------Saturation indices-------------------------------

  Phase               SI** log IAP   log K(298 K,  65 atm)

  CO2(g)            1.63      0.12   -1.51  CO2	 Pressure  65.1 atm, phi 0.657
  H2O(g)           -1.49     -0.01    1.48  H2O	 Pressure   0.1 atm, phi 0.348

**For a gas, SI = log10(fugacity). Fugacity = pressure * phi / 1 atm.
  For ideal gases, phi = 1.

Reaction step 19.

Using solution 1.	
Using gas phase 1.	
Using reaction 1.	

Reaction 1.	

	  5.000e-01 moles of the following reaction have been added:

	                 Relative
	Reactant            moles

	CO2                  1.00000

	                 Relative
	Element             moles
	C                    1.00000
	O                    2.00000

-----------------------------------Gas phase-----------------------------------

Total pressure: 65.15      atmospheres          (Peng-Robinson calculation)
    Gas volume:   1.00e+00 liters
  Molar volume:   1.31e-01 liters/mole
   P * Vm / RT:  0.34892  (Compressibility Factor Z) 

                                                        Moles in gas
                                            ----------------------------------
Component         log P           P    phi     Initial       Final       Delta

CO2(g)             1.81   6.505e+01  0.657   7.120e+00   7.620e+00   5.001e-01
H2O(g)            -1.02   9.646e-02  0.333   1.012e-02   1.130e-02   1.183e-03

-----------------------------Solution composition------------------------------

	Elements           Molality       Moles

	C                 1.380e+00   1.380e+00

----------------------------Description of solution----------------------------

                                       pH  =   3.104      Charge balance
                                       pe  =   4.000      Adjusted to redox equilibrium
      Specific Conductance (µS/cm,  25°C)  = 322
                          Density (g/cm³)  =   1.01261
                               Volume (L)  =   1.04733
                        Activity of water  =   0.976
                 Ionic strength (mol/kgw)  =   8.238e-04
                       Mass of water (kg)  =   9.998e-01
                 Total alkalinity (eq/kg)  =   1.220e-09
                       Total CO2 (mol/kg)  =   1.380e+00
                         Temperature (°C)  =  25.00
                           Pressure (atm)  = 65.15
                  Electrical balance (eq)  =  -1.220e-09
 Percent error, 100*(Cat-|An|)/(Cat+|An|)  =  -0.00
                               Iterations  =   8
                         Gamma iterations  =   2
                      Osmotic coefficient  =   0.98152
                         Density of water  =   0.99992
                                  Total H  = 1.109898e+02
                                  Total O  = 5.825522e+01

----------------------------Distribution of species----------------------------

                                                    MacInnes  MacInnes
                                MacInnes       Log       Log       Log    mole V
   Species          Molality    Activity  Molality  Activity     Gamma    cm³/mol

   H+              8.238e-04   7.865e-04    -3.084    -3.104    -0.020      0.00
   OH-             1.356e-11   1.330e-11   -10.868   -10.876    -0.008     -3.87
   H2O             5.551e+01   9.759e-01     1.744    -0.011     0.000     18.02
C(4)          1.380e+00
   CO2             1.380e+00   1.330e+00     0.140     0.124    -0.016     34.40
   HCO3-           8.238e-04   8.079e-04    -3.084    -3.093    -0.008     24.81
   CO3-2           5.642e-11   5.063e-11   -10.249   -10.296    -0.047     -3.28

------------------------------Saturation indices-------------------------------

  Phase               SI** log IAP   log K(298 K,  65 atm)

  CO2(g)            1.63      0.12   -1.51  CO2	 Pressure  65.0 atm, phi 0.657
  H2O(g)           -1.49     -0.01    1.48  H2O	 Pressure   0.1 atm, phi 0.333

**For a gas, SI = log10(fugacity). Fugacity = pressure * phi / 1 atm.
  For ideal gases, phi = 1.

Reaction step 20.

Using solution 1.	
Using gas phase 1.	
Using reaction 1.	

Reaction 1.	

	  5.000e-01 moles of the following reaction have been added:

	                 Relative
	Reactant            moles

	CO2                  1.00000

	                 Relative
	Element             moles
	C                    1.00000
	O                    2.00000

-----------------------------------Gas phase-----------------------------------

Total pressure: 65.14      atmospheres          (Peng-Robinson calculation)
    Gas volume:   1.00e+00 liters
  Molar volume:   1.23e-01 liters/mole
   P * Vm / RT:  0.32737  (Compressibility Factor Z) 

                                                        Moles in gas
                                            ----------------------------------
Component         log P           P    phi     Initial       Final       Delta

CO2(g)             1.81   6.504e+01  0.657   7.620e+00   8.120e+00   5.002e-01
H2O(g)            -1.00   1.007e-01  0.319   1.130e-02   1.257e-02   1.270e-03

-----------------------------Solution composition------------------------------

	Elements           Molality       Moles

	C                 1.380e+00   1.380e+00

----------------------------Description of solution----------------------------

                                       pH  =   3.104      Charge balance
                                       pe  =   4.000      Adjusted to redox equilibrium
      Specific Conductance (µS/cm,  25°C)  = 322
                          Density (g/cm³)  =   1.01261
                               Volume (L)  =   1.04730
                        Activity of water  =   0.976
                 Ionic strength (mol/kgw)  =   8.237e-04
                       Mass of water (kg)  =   9.998e-01
                 Total alkalinity (eq/kg)  =   1.220e-09
                       Total CO2 (mol/kg)  =   1.380e+00
                         Temperature (°C)  =  25.00
                           Pressure (atm)  = 65.14
                  Electrical balance (eq)  =  -1.220e-09
 Percent error, 100*(Cat-|An|)/(Cat+|An|)  =  -0.00
                               Iterations  =   9
                         Gamma iterations  =   2
                      Osmotic coefficient  =   0.98152
                         Density of water  =   0.99992
                                  Total H  = 1.109873e+02
                                  Total O  = 5.825351e+01

----------------------------Distribution of species----------------------------

                                                    MacInnes  MacInnes
                                MacInnes       Log       Log       Log    mole V
   Species          Molality    Activity  Molality  Activity     Gamma    cm³/mol

   H+              8.237e-04   7.865e-04    -3.084    -3.104    -0.020      0.00
   OH-             1.356e-11   1.330e-11   -10.868   -10.876    -0.008     -3.87
   H2O             5.551e+01   9.759e-01     1.744    -0.011     0.000     18.02
C(4)          1.380e+00
   CO2             1.379e+00   1.329e+00     0.140     0.124    -0.016     34.40
   HCO3-           8.237e-04   8.078e-04    -3.084    -3.093    -0.008     24.81
   CO3-2           5.642e-11   5.062e-11   -10.249   -10.296    -0.047     -3.28

------------------------------Saturation indices-------------------------------

  Phase               SI** log IAP   log K(298 K,  65 atm)

  CO2(g)            1.63      0.12   -1.51  CO2	 Pressure  65.0 atm, phi 0.657
  H2O(g)           -1.49     -0.01    1.48  H2O	 Pressure   0.1 atm, phi 0.319

**For a gas, SI = log10(fugacity). Fugacity = pressure * phi / 1 atm.
  For ideal gases, phi = 1.

Reaction step 21.

Using solution 1.	
Using gas phase 1.	
Using reaction 1.	

Reaction 1.	

	  5.000e-01 moles of the following reaction have been added:

	                 Relative
	Reactant            moles

	CO2                  1.00000

	                 Relative
	Element             moles
	C                    1.00000
	O                    2.00000

-----------------------------------Gas phase-----------------------------------

Total pressure: 65.13      atmospheres          (Peng-Robinson calculation)
    Gas volume:   1.00e+00 liters
  Molar volume:   1.16e-01 liters/mole
   P * Vm / RT:  0.30832  (Compressibility Factor Z) 

                                                        Moles in gas
                                            ----------------------------------
Component         log P           P    phi     Initial       Final       Delta

CO2(g)             1.81   6.503e+01  0.657   8.120e+00   8.620e+00   5.004e-01
H2O(g)            -0.98   1.051e-01  0.306   1.257e-02   1.393e-02   1.363e-03

-----------------------------Solution composition------------------------------

	Elements           Molality       Moles

	C                 1.380e+00   1.380e+00

----------------------------Description of solution----------------------------

                                       pH  =   3.104      Charge balance
                                       pe  =   4.000      Adjusted to redox equilibrium
      Specific Conductance (µS/cm,  25°C)  = 322
                          Density (g/cm³)  =   1.01261
                               Volume (L)  =   1.04726
                        Activity of water  =   0.976
                 Ionic strength (mol/kgw)  =   8.236e-04
                       Mass of water (kg)  =   9.997e-01
                 Total alkalinity (eq/kg)  =   1.221e-09
                       Total CO2 (mol/kg)  =   1.380e+00
                         Temperature (°C)  =  25.00
                           Pressure (atm)  = 65.13
                  Electrical balance (eq)  =  -1.220e-09
 Percent error, 100*(Cat-|An|)/(Cat+|An|)  =  -0.00
                               Iterations  =  10
                         Gamma iterations  =   2
                      Osmotic coefficient  =   0.98153
                         Density of water  =   0.99992
                                  Total H  = 1.109846e+02
                                  Total O  = 5.825131e+01

----------------------------Distribution of species----------------------------

                                                    MacInnes  MacInnes
                                MacInnes       Log       Log       Log    mole V
   Species          Molality    Activity  Molality  Activity     Gamma    cm³/mol

   H+              8.236e-04   7.864e-04    -3.084    -3.104    -0.020      0.00
   OH-             1.356e-11   1.330e-11   -10.868   -10.876    -0.008     -3.87
   H2O             5.551e+01   9.759e-01     1.744    -0.011     0.000     18.02
C(4)          1.380e+00
   CO2             1.379e+00   1.329e+00     0.140     0.124    -0.016     34.40
   HCO3-           8.236e-04   8.077e-04    -3.084    -3.093    -0.008     24.81
   CO3-2           5.642e-11   5.062e-11   -10.249   -10.296    -0.047     -3.28

------------------------------Saturation indices-------------------------------

  Phase               SI** log IAP   log K(298 K,  65 atm)

  CO2(g)            1.63      0.12   -1.51  CO2	 Pressure  65.0 atm, phi 0.657
  H2O(g)           -1.49     -0.01    1.48  H2O	 Pressure   0.1 atm, phi 0.306

**For a gas, SI = log10(fugacity). Fugacity = pressure * phi / 1 atm.
  For ideal gases, phi = 1.

Reaction step 22.

Using solution 1.	
Using gas phase 1.	
Using reaction 1.	

Reaction 1.	

	  5.000e-01 moles of the following reaction have been added:

	                 Relative
	Reactant            moles

	CO2                  1.00000

	                 Relative
	Element             moles
	C                    1.00000
	O                    2.00000

-----------------------------------Gas phase-----------------------------------

Total pressure: 65.12      atmospheres          (Peng-Robinson calculation)
    Gas volume:   1.00e+00 liters
  Molar volume:   1.09e-01 liters/mole
   P * Vm / RT:  0.29134  (Compressibility Factor Z) 

                                                        Moles in gas
[...]

  CO2(g)            2.26      0.25   -2.01  CO2	 Pressure 898.3 atm, phi 0.202
  H2O(g)           -1.24     -0.01    1.22  H2O	 Pressure   3.7 atm, phi 0.016

**For a gas, SI = log10(fugacity). Fugacity = pressure * phi / 1 atm.
  For ideal gases, phi = 1.

Reaction step 60.

Using solution 1.	
Using gas phase 1.	
Using reaction 1.	

Reaction 1.	

	  5.000e-01 moles of the following reaction have been added:

	                 Relative
	Reactant            moles

	CO2                  1.00000

	                 Relative
	Element             moles
	C                    1.00000
	O                    2.00000

-----------------------------------Gas phase-----------------------------------

Total pressure: 1016.36      atmospheres          (Peng-Robinson calculation)
    Gas volume:   1.00e+00 liters
  Molar volume:   3.61e-02 liters/mole
   P * Vm / RT:  1.49770  (Compressibility Factor Z) 

                                                        Moles in gas
                                            ----------------------------------
Component         log P           P    phi     Initial       Final       Delta

CO2(g)             3.01   1.012e+03  0.212   2.715e+01   2.763e+01   4.740e-01
H2O(g)             0.61   4.085e+00  0.015   1.115e-01   1.115e-01  -4.934e-05

-----------------------------Solution composition------------------------------

	Elements           Molality       Moles

	C                 1.879e+00   1.875e+00

----------------------------Description of solution----------------------------

                                       pH  =   2.828      Charge balance
                                       pe  =   4.000      Adjusted to redox equilibrium
      Specific Conductance (µS/cm,  25°C)  = 613
                          Density (g/cm³)  =   1.05509
                               Volume (L)  =   1.02408
                        Activity of water  =   0.968
                 Ionic strength (mol/kgw)  =   1.580e-03
                       Mass of water (kg)  =   9.980e-01
                 Total alkalinity (eq/kg)  =   1.232e-09
                       Total CO2 (mol/kg)  =   1.879e+00
                         Temperature (°C)  =  25.00
                           Pressure (atm)  = 1016.36
                  Electrical balance (eq)  =  -1.229e-09
 Percent error, 100*(Cat-|An|)/(Cat+|An|)  =  -0.00
                               Iterations  =  68
                         Gamma iterations  =   4
                      Osmotic coefficient  =   0.97487
                         Density of water  =   1.03912
                                  Total H  = 1.107895e+02
                                  Total O  = 5.914412e+01

----------------------------Distribution of species----------------------------

                                                    MacInnes  MacInnes
                                MacInnes       Log       Log       Log    mole V
   Species          Molality    Activity  Molality  Activity     Gamma    cm³/mol

   H+              1.580e-03   1.486e-03    -2.801    -2.828    -0.027      0.00
   OH-             1.461e-11   1.424e-11   -10.835   -10.846    -0.011     -1.23
   H2O             5.551e+01   9.675e-01     1.744    -0.014     0.000     17.34
C(4)          1.879e+00
   CO2             1.877e+00   1.785e+00     0.273     0.252    -0.022     33.98
   HCO3-           1.580e-03   1.541e-03    -2.801    -2.812    -0.011     25.58
   CO3-2           1.442e-10   1.251e-10    -9.841    -9.903    -0.062      2.24

------------------------------Saturation indices-------------------------------

  Phase               SI** log IAP   log K(298 K, 1016 atm)

  CO2(g)            2.33      0.25   -2.08  CO2	 Pressure 1012.3 atm, phi 0.212
  H2O(g)           -1.20     -0.01    1.19  H2O	 Pressure   4.1 atm, phi 0.015

**For a gas, SI = log10(fugacity). Fugacity = pressure * phi / 1 atm.
  For ideal gases, phi = 1.

Reaction step 61.

Using solution 1.	
Using gas phase 1.	
Using reaction 1.	

Reaction 1.	

	  5.000e-01 moles of the following reaction have been added:

	                 Relative
	Reactant            moles

	CO2                  1.00000

	                 Relative
	Element             moles
	C                    1.00000
	O                    2.00000

-----------------------------------Gas phase-----------------------------------

Total pressure: 1146.73      atmospheres          (Peng-Robinson calculation)
    Gas volume:   1.00e+00 liters
  Molar volume:   3.54e-02 liters/mole
   P * Vm / RT:  1.66137  (Compressibility Factor Z) 

                                                        Moles in gas
                                            ----------------------------------
Component         log P           P    phi     Initial       Final       Delta

CO2(g)             3.06   1.142e+03  0.228   2.763e+01   2.810e+01   4.756e-01
H2O(g)             0.65   4.505e+00  0.015   1.115e-01   1.108e-01  -6.582e-04

-----------------------------Solution composition------------------------------

	Elements           Molality       Moles

	C                 1.903e+00   1.899e+00

----------------------------Description of solution----------------------------

                                       pH  =   2.798      Charge balance
                                       pe  =   4.000      Adjusted to redox equilibrium
      Specific Conductance (µS/cm,  25°C)  = 656
                          Density (g/cm³)  =   1.06008
                               Volume (L)  =   1.02029
                        Activity of water  =   0.967
                 Ionic strength (mol/kgw)  =   1.696e-03
                       Mass of water (kg)  =   9.980e-01
                 Total alkalinity (eq/kg)  =   1.233e-09
                       Total CO2 (mol/kg)  =   1.903e+00
                         Temperature (°C)  =  25.00
                           Pressure (atm)  = 1146.73
                  Electrical balance (eq)  =  -1.230e-09
 Percent error, 100*(Cat-|An|)/(Cat+|An|)  =  -0.00
                               Iterations  =  74
                         Gamma iterations  =   4
                      Osmotic coefficient  =   0.97454
                         Density of water  =   1.04405
                                  Total H  = 1.107908e+02
                                  Total O  = 5.919359e+01

----------------------------Distribution of species----------------------------

                                                    MacInnes  MacInnes
                                MacInnes       Log       Log       Log    mole V
   Species          Molality    Activity  Molality  Activity     Gamma    cm³/mol

   H+              1.696e-03   1.592e-03    -2.771    -2.798    -0.027      0.00
   OH-             1.482e-11   1.443e-11   -10.829   -10.841    -0.011     -0.97
   H2O             5.551e+01   9.671e-01     1.744    -0.015     0.000     17.26
C(4)          1.903e+00
   CO2             1.901e+00   1.807e+00     0.279     0.257    -0.022     33.93
   HCO3-           1.696e-03   1.651e-03    -2.771    -2.782    -0.011     25.67
   CO3-2           1.605e-10   1.385e-10    -9.794    -9.858    -0.064      2.80

------------------------------Saturation indices-------------------------------

  Phase               SI** log IAP   log K(298 K, 1147 atm)

  CO2(g)            2.42      0.26   -2.16  CO2	 Pressure 1142.2 atm, phi 0.228
  H2O(g)           -1.17     -0.01    1.15  H2O	 Pressure   4.5 atm, phi 0.015

**For a gas, SI = log10(fugacity). Fugacity = pressure * phi / 1 atm.
  For ideal gases, phi = 1.

Reaction step 62.

Using solution 1.	
Using gas phase 1.	
Using reaction 1.	

Reaction 1.	

	  5.000e-01 moles of the following reaction have been added:

	                 Relative
	Reactant            moles

	CO2                  1.00000

	                 Relative
	Element             moles
	C                    1.00000
	O                    2.00000

-----------------------------------Gas phase-----------------------------------

Total pressure: 1296.16      atmospheres          (Peng-Robinson calculation)
    Gas volume:   1.00e+00 liters
  Molar volume:   3.49e-02 liters/mole
   P * Vm / RT:  1.84667  (Compressibility Factor Z) 

                                                        Moles in gas
                                            ----------------------------------
Component         log P           P    phi     Initial       Final       Delta

CO2(g)             3.11   1.291e+03  0.250   2.810e+01   2.858e+01   4.779e-01
H2O(g)             0.69   4.946e+00  0.015   1.108e-01   1.095e-01  -1.355e-03

-----------------------------Solution composition------------------------------

	Elements           Molality       Moles

	C                 1.925e+00   1.921e+00

----------------------------Description of solution----------------------------

                                       pH  =   2.765      Charge balance
                                       pe  =   4.000      Adjusted to redox equilibrium
      Specific Conductance (µS/cm,  25°C)  = 706
                          Density (g/cm³)  =   1.06572
                               Volume (L)  =   1.01582
                        Activity of water  =   0.967
                 Ionic strength (mol/kgw)  =   1.834e-03
                       Mass of water (kg)  =   9.980e-01
                 Total alkalinity (eq/kg)  =   1.234e-09
                       Total CO2 (mol/kg)  =   1.925e+00
                         Temperature (°C)  =  25.00
                           Pressure (atm)  = 1296.16
                  Electrical balance (eq)  =  -1.232e-09
 Percent error, 100*(Cat-|An|)/(Cat+|An|)  =  -0.00
                               Iterations  =  80
                         Gamma iterations  =   4
                      Osmotic coefficient  =   0.97425
                         Density of water  =   1.04968
                                  Total H  = 1.107935e+02
                                  Total O  = 5.923923e+01

----------------------------Distribution of species----------------------------

                                                    MacInnes  MacInnes
                                MacInnes       Log       Log       Log    mole V
   Species          Molality    Activity  Molality  Activity     Gamma    cm³/mol

   H+              1.834e-03   1.719e-03    -2.737    -2.765    -0.028      0.00
   OH-             1.505e-11   1.463e-11   -10.823   -10.835    -0.012     -0.68
   H2O             5.551e+01   9.667e-01     1.744    -0.015     0.000     17.16
C(4)          1.925e+00
   CO2             1.923e+00   1.827e+00     0.284     0.262    -0.022     33.87
   HCO3-           1.834e-03   1.783e-03    -2.737    -2.749    -0.012     25.76
   CO3-2           1.807e-10   1.550e-10    -9.743    -9.810    -0.067      3.42

------------------------------Saturation indices-------------------------------

  Phase               SI** log IAP   log K(298 K, 1296 atm)

  CO2(g)            2.51      0.26   -2.25  CO2	 Pressure 1291.2 atm, phi 0.250
  H2O(g)           -1.12     -0.01    1.11  H2O	 Pressure   4.9 atm, phi 0.015

**For a gas, SI = log10(fugacity). Fugacity = pressure * phi / 1 atm.
  For ideal gases, phi = 1.

Reaction step 63.

Using solution 1.	
Using gas phase 1.	
Using reaction 1.	

Reaction 1.	

	  5.000e-01 moles of the following reaction have been added:

	                 Relative
	Reactant            moles

	CO2                  1.00000

	                 Relative
	Element             moles
	C                    1.00000
	O                    2.00000

-----------------------------------Gas phase-----------------------------------

Total pressure: 1468.52      atmospheres          (Peng-Robinson calculation)
    Gas volume:   1.00e+00 liters
  Molar volume:   3.43e-02 liters/mole
   P * Vm / RT:  2.05789  (Compressibility Factor Z) 

                                                        Moles in gas
                                            ----------------------------------
Component         log P           P    phi     Initial       Final       Delta

CO2(g)             3.17   1.463e+03  0.281   2.858e+01   2.906e+01   4.810e-01
H2O(g)             0.73   5.403e+00  0.016   1.095e-01   1.073e-01  -2.160e-03

-----------------------------Solution composition------------------------------

	Elements           Molality       Moles

	C                 1.944e+00   1.940e+00

----------------------------Description of solution----------------------------

                                       pH  =   2.728      Charge balance
                                       pe  =   4.000      Adjusted to redox equilibrium
      Specific Conductance (µS/cm,  25°C)  = 765
                          Density (g/cm³)  =   1.07224
                               Volume (L)  =   1.01046
                        Activity of water  =   0.966
                 Ionic strength (mol/kgw)  =   2.000e-03
                       Mass of water (kg)  =   9.980e-01
                 Total alkalinity (eq/kg)  =   1.236e-09
                       Total CO2 (mol/kg)  =   1.944e+00
                         Temperature (°C)  =  25.00
                           Pressure (atm)  = 1468.52
                  Electrical balance (eq)  =  -1.233e-09
 Percent error, 100*(Cat-|An|)/(Cat+|An|)  =  -0.00
                               Iterations  =  88
                         Gamma iterations  =   4
                      Osmotic coefficient  =   0.97400
                         Density of water  =   1.05625
                                  Total H  = 1.107978e+02
                                  Total O  = 5.927930e+01

----------------------------Distribution of species----------------------------

                                                    MacInnes  MacInnes
                                MacInnes       Log       Log       Log    mole V
   Species          Molality    Activity  Molality  Activity     Gamma    cm³/mol

   H+              2.000e-03   1.872e-03    -2.699    -2.728    -0.029      0.00
   OH-             1.530e-11   1.486e-11   -10.815   -10.828    -0.013     -0.37
   H2O             5.551e+01   9.664e-01     1.744    -0.015     0.000     17.06
C(4)          1.944e+00
   CO2             1.942e+00   1.844e+00     0.288     0.266    -0.023     33.81
   HCO3-           2.000e-03   1.942e-03    -2.699    -2.712    -0.013     25.86
   CO3-2           2.060e-10   1.756e-10    -9.686    -9.756    -0.070      4.07

------------------------------Saturation indices-------------------------------

  Phase               SI** log IAP   log K(298 K, 1469 atm)

  CO2(g)            2.61      0.27   -2.35  CO2	 Pressure 1463.1 atm, phi 0.281
  H2O(g)           -1.07     -0.01    1.06  H2O	 Pressure   5.4 atm, phi 0.016

**For a gas, SI = log10(fugacity). Fugacity = pressure * phi / 1 atm.
  For ideal gases, phi = 1.

Reaction step 64.

WARNING: Maximum iterations exceeded, 200

WARNING: Numerical method failed with this set of convergence parameters.

WARNING: Trying smaller step size, pe step size 10, 5 ... 

WARNING: Maximum iterations exceeded, 400

WARNING: Numerical method failed with this set of convergence parameters.

WARNING: Trying reduced tolerance 1e-16 ...

WARNING: Maximum iterations exceeded, 400

WARNING: Numerical method failed with this set of convergence parameters.

WARNING: Trying increased tolerance 1e-14 ...

WARNING: Maximum iterations exceeded, 400

WARNING: Numerical method failed with this set of convergence parameters.

WARNING: Trying diagonal scaling ...

WARNING: Maximum iterations exceeded, 400

WARNING: Numerical method failed with this set of convergence parameters.

WARNING: Trying diagonal scaling and reduced tolerance 1e-16 ...

WARNING: Maximum iterations exceeded, 400

WARNING: Numerical method failed with this set of convergence parameters.

WARNING: Trying reduced tolerance 1e-17 ...

WARNING: Maximum iterations exceeded, 400

WARNING: Numerical method failed with this set of convergence parameters.

WARNING: Trying reduced tolerance 1e-18 ...

WARNING: Maximum iterations exceeded, 400

WARNING: Numerical method failed with this set of convergence parameters.

WARNING: The program has failed to converge to a numerical solution.

The following equations were not satisfied:
Using solution 1.	
Using gas phase 1.	
Using reaction 1.	

Reaction 1.	

	  5.000e-01 moles of the following reaction have been added:

	                 Relative
	Reactant            moles

	CO2                  1.00000

	                 Relative
	Element             moles
	C                    1.00000
	O                    2.00000

-----------------------------------Gas phase-----------------------------------

Total pressure: 1597.88      atmospheres WARNING: Program limit.
    Gas volume:   1.00e+00 liters
  Molar volume:   3.39e-02 liters/mole
   P * Vm / RT:  2.21510  (Compressibility Factor Z) 

                                                        Moles in gas
                                            ----------------------------------
Component         log P           P    phi     Initial       Final       Delta

CO2(g)             3.20   1.593e+03  0.310   2.906e+01   2.939e+01   3.255e-01
H2O(g)             0.73   5.348e+00  0.016   1.073e-01   9.867e-02  -8.645e-03

-----------------------------Solution composition------------------------------

	Elements           Molality       Moles

	C                 2.119e+00   2.115e+00

----------------------------Description of solution----------------------------

                                       pH  =   2.683      Charge balance
                                       pe  =   4.000      Adjusted to redox equilibrium
      Specific Conductance (µS/cm,  25°C)  = 792
                          Density (g/cm³)  =   1.07475
                               Volume (L)  =   1.01539
                        Activity of water  =   0.966
                 Ionic strength (mol/kgw)  =   2.073e-03
                       Mass of water (kg)  =   9.982e-01
                 Total alkalinity (eq/kg)  =   1.236e-09
                       Total CO2 (mol/kg)  =   2.119e+00
                         Temperature (°C)  =  25.00
                           Pressure (atm)  = 1500.00
                  Electrical balance (eq)  =  -1.233e-09
 Percent error, 100*(Cat-|An|)/(Cat+|An|)  =  -0.00
                               Iterations  = 401 (3008 overall)
                         Gamma iterations  =   0
                      Osmotic coefficient  =   0.97092
                         Density of water  =   1.05746
                                  Total H  = 1.108151e+02
                                  Total O  = 5.963689e+01

----------------------------Distribution of species----------------------------

                                                    MacInnes  MacInnes
                                MacInnes       Log       Log       Log    mole V
   Species          Molality    Activity  Molality  Activity     Gamma    cm³/mol

   H+              2.073e-03   2.073e-03    -2.683    -2.683     0.000      0.00
   OH-             1.366e-11   1.366e-11   -10.865   -10.865     0.000     -0.31
   H2O             5.551e+01   9.664e-01     1.744    -0.015     0.000     17.04
C(4)          2.119e+00
   CO2             2.116e+00   2.116e+00     0.326     0.326     0.000     33.80
   HCO3-           2.073e-03   2.073e-03    -2.683    -2.683     0.000     25.88
   CO3-2           1.730e-10   1.730e-10    -9.762    -9.762     0.000      4.19

------------------------------Saturation indices-------------------------------

  Phase               SI** log IAP   log K(298 K, 1500 atm)

  CO2(g)            2.69      0.33   -2.37  CO2	 Pressure 1592.5 atm, phi 0.310
  H2O(g)           -1.06     -0.01    1.05  H2O	 Pressure   5.3 atm, phi 0.016

**For a gas, SI = log10(fugacity). Fugacity = pressure * phi / 1 atm.
  For ideal gases, phi = 1.

ERROR: Numerical method failed on all combinations of convergence parameters, cell/soln/mix 1
Stopping.
